lig/4jym_with_8y9o_ligand_heta.pdb
 OpenBabel02122509423D

 31 33  0  0  0  0  0  0  0  0999 V2000
   34.4070   -5.0970   66.3320 N   0  0  0  0  0  0  0  0  0  0  0  0
   33.5420   -7.0990   65.0020 N   0  0  0  0  0  0  0  0  0  0  0  0
   33.0080   -7.6170   63.8730 N   0  0  0  0  0  0  0  0  0  0  0  0
   32.3980   -8.7740   64.2430 N   0  0  0  0  0  0  0  0  0  0  0  0
   34.3170   -5.8930   65.0880 C   0  0  0  0  0  0  0  0  0  0  0  0
   32.5850   -8.9930   65.5280 C   0  0  0  0  0  0  0  0  0  0  0  0
   33.3300   -7.9370   66.0050 C   0  0  0  0  0  0  0  0  0  0  0  0
   35.2320   -3.8420   66.5340 C   0  0  0  0  0  0  0  0  0  0  0  0
   34.5260   -3.0520   67.4570 C   0  0  0  0  0  0  0  0  0  0  0  0
   33.2680   -3.8280   67.7990 C   0  0  0  0  0  0  0  0  0  0  0  0
   33.6930   -5.2520   67.5970 C   0  0  0  0  0  0  0  0  0  0  0  0
   36.4930   -3.4270   66.0390 C   0  0  0  0  0  0  0  0  0  0  0  0
   37.0220   -2.1850   66.4390 C   0  0  0  0  0  0  0  0  0  0  0  0
   36.2950   -1.3780   67.3540 C   0  0  0  0  0  0  0  0  0  0  0  0
   35.0620   -1.8130   67.8630 C   0  0  0  0  0  0  0  0  0  0  0  0
   37.2670   -4.3100   65.0620 C   0  0  0  0  0  0  0  0  0  0  0  0
   34.9190   -5.6050   64.1140 O   0  0  0  0  0  0  0  0  0  0  0  0
   33.6650   -7.8200   66.9740 H   0  0  0  0  0  0  0  0  0  0  0  0
   32.4640   -3.5690   67.1420 H   0  0  0  0  0  0  0  0  0  0  0  0
   32.9010   -3.6300   68.7840 H   0  0  0  0  0  0  0  0  0  0  0  0
   32.8570   -5.9130   67.5080 H   0  0  0  0  0  0  0  0  0  0  0  0
   34.2600   -5.6830   68.3970 H   0  0  0  0  0  0  0  0  0  0  0  0
   37.9300   -1.8630   66.0700 H   0  0  0  0  0  0  0  0  0  0  0  0
   36.6760   -0.4640   67.6450 H   0  0  0  0  0  0  0  0  0  0  0  0
   34.5470   -1.2260   68.5370 H   0  0  0  0  0  0  0  0  0  0  0  0
   36.7140   -5.2070   64.8770 H   0  0  0  0  0  0  0  0  0  0  0  0
   38.2190   -4.5580   65.4830 H   0  0  0  0  0  0  0  0  0  0  0  0
   37.4100   -3.7820   64.1420 H   0  0  0  0  0  0  0  0  0  0  0  0
   33.0510   -7.2330   62.9680 H   0  0  0  0  0  0  0  0  0  0  0  0
   31.8910   -9.3630   63.6380 H   0  0  0  0  0  0  0  0  0  0  0  0
   32.2403   -9.7993   66.0721 H   0  0  0  0  0  0  0  0  0  0  0  0
  1  8  1  0  0  0  0
  1 11  1  0  0  0  0
  2  5  1  0  0  0  0
  2  7  1  0  0  0  0
  3  4  1  0  0  0  0
  3  2  1  0  0  0  0
  4  6  1  0  0  0  0
  5  1  1  0  0  0  0
  6  7  2  0  0  0  0
  6 31  1  0  0  0  0
  7 18  1  0  0  0  0
  8  9  2  0  0  0  0
  9 10  1  0  0  0  0
  9 15  1  0  0  0  0
 10 20  1  0  0  0  0
 11 10  1  0  0  0  0
 11 22  1  0  0  0  0
 12 13  2  0  0  0  0
 12  8  1  0  0  0  0
 13 14  1  0  0  0  0
 14 24  1  0  0  0  0
 14 15  2  0  0  0  0
 15 25  1  0  0  0  0
 16 27  1  0  0  0  0
 16 12  1  0  0  0  0
 17  5  2  0  0  0  0
 19 10  1  0  0  0  0
 21 11  1  0  0  0  0
 23 13  1  0  0  0  0
 26 16  1  0  0  0  0
 28 16  1  0  0  0  0
 29  3  1  0  0  0  0
 30  4  1  0  0  0  0
M  END
